<routes>
    <flow id="01" type="Car" begin="0" end="5000" probability="0.1" from="edge1-0" to="edge0-2" departPos="1" departLane="best" departSpeed="10.0"/>
    <flow id="02" type="Car" begin="0" end="5000" probability="0.1" from="edge2-0" to="edge0-1" departPos="2" departLane="best" departSpeed="10.0"/>
    <flow id="03" type="Car" begin="0" end="5000" probability="0.1" from="edge3-0" to="edge0-4" departPos="3" departLane="best" departSpeed="10.0"/>
    <flow id="04" type="Car" begin="0" end="5000" probability="0.1" from="edge4-0" to="edge0-3" departPos="4" departLane="best" departSpeed="10.0"/>
    <flow id="11" type="Car" begin="1000" end="2000" probability="0.2" from="edge1-0" to="edge0-2" departPos="1" departLane="best" departSpeed="10.0"/>
    <flow id="12" type="Car" begin="2000" end="3000" probability="0.2" from="edge2-0" to="edge0-1" departPos="2" departLane="best" departSpeed="10.0"/>
    <flow id="13" type="Car" begin="3000" end="4000" probability="0.2" from="edge3-0" to="edge0-4" departPos="3" departLane="best" departSpeed="10.0"/>
    <flow id="14" type="Car" begin="4000" end="5000" probability="0.2" from="edge4-0" to="edge0-3" departPos="4" departLane="best" departSpeed="10.0"/>
</routes>