<routes>
    <flow id="01" type="Car" begin="0" end="100" probability="0.5" from="edge1-0" to="edge0-2" departPos="1" departLane="best" departSpeed="10.0"/>
    <flow id="02" type="Car" begin="100" end="200" probability="0.5" from="edge2-0" to="edge0-1" departPos="2" departLane="best" departSpeed="10.0"/>
    <flow id="03" type="Car" begin="200" end="300" probability="0.5" from="edge3-0" to="edge0-4" departPos="3" departLane="best" departSpeed="10.0"/>
    <flow id="04" type="Car" begin="300" end="400" probability="0.5" from="edge4-0" to="edge0-3" departPos="4" departLane="best" departSpeed="10.0"/>
</routes>